 Wisconsin Multifacet Project UW-Madison Computer Architecture Group Department of Computer Sciences University of Wisconsin-Madison Mark Hill David Wood Overview People Publications & Talks Theses Related Projects Links Overview Publications & Talks By Year 2013 2012 2011 2010 2009 2008 2007 2006 2005 2004 2003 2002 2001 2000 1999 1998 By Topic Multiprocessor Design, Specification, & Verification Transactional Memory LogTM Home Page ) Deterministic Recording & Replay Modeling & Simulation Workload Analysis & Improvement Availability Miscellaneous Software & Tools The gem5 Simulator System Multifacet's General Execution-driven Multiprocessor Simulator (GEMS) Sponsors Award Number 9971256 Award Number 0205286 Award Number 0324878 Award Number 0551401 Award Number 0720565 Award Number 0916725 Award Number 1017650 Google HP (formerly Compaq Computer and Digital Equipment Corporations) IBM Intel Microsoft Oracle (formerly Sun Microsystems) Sandia National Laboratories The project that spawned this project Wisconsin Wind Tunnel Project 
